Version 4
SHEET 1 880 680
WIRE 128 16 48 16
WIRE 304 16 208 16
WIRE 432 16 304 16
WIRE 48 48 48 16
WIRE 304 80 304 16
WIRE 432 80 432 16
WIRE 48 208 48 128
WIRE 304 208 304 144
WIRE 304 208 48 208
WIRE 432 208 432 160
WIRE 432 208 304 208
WIRE 304 240 304 208
FLAG 304 240 0
FLAG 304 16 A
SYMBOL res 224 0 R90
WINDOW 0 0 56 VBottom 2
WINDOW 3 32 56 VTop 2
SYMATTR InstName R1
SYMATTR Value 4.7k
SYMBOL voltage 48 32 R0
WINDOW 123 24 124 Left 2
WINDOW 39 0 0 Left 0
SYMATTR InstName V1
SYMATTR Value ""
SYMATTR Value2 AC 1
SYMBOL cap 288 80 R0
SYMATTR InstName C1
SYMATTR Value 100n
SYMBOL ind 416 64 R0
SYMATTR InstName L1
SYMATTR Value 10m
SYMATTR SpiceLine Rser=40
TEXT 32 -72 Left 2 !.ac dec 50 1 1MEG
